REMARK from dok file => REMARK Cluster   1 of Poses:  3 Score: -3.87 kcal/mol
 OpenBabel07182423433D

 17 18  0  0  0  0  0  0  0  0999 V2000
   56.4590   34.7070   27.5380 O   0  0  0  0  0  0  0  0  0  0  0  0
   56.2610   36.9440   31.6610 O   0  0  0  0  0  0  0  0  0  0  0  0
   55.7630   36.9270   27.5520 N   0  0  0  0  0  0  0  0  0  0  0  0
   56.3690   35.7990   29.6080 N   0  0  0  0  0  0  0  0  0  0  0  0
   55.3270   39.3030   30.0890 N   0  0  0  0  0  0  0  0  0  0  0  0
   55.0680   39.2660   27.8750 N   0  0  0  0  0  0  0  0  0  0  0  0
   55.5050   38.0500   28.3270 C   0  0  0  0  0  0  0  0  0  0  0  0
   55.6720   38.0450   29.6850 C   0  0  0  0  0  0  0  0  0  0  0  0
   56.2130   35.7370   28.1760 C   0  0  0  0  0  0  0  0  0  0  0  0
   56.1180   36.9210   30.4420 C   0  0  0  0  0  0  0  0  0  0  0  0
   56.8340   34.5730   30.2470 C   0  0  0  0  0  1  0  0  0  0  0  0
   54.9700   40.0000   28.9640 C   0  0  0  0  0  3  0  0  0  0  0  0
   55.3320   39.6560   31.0370 H   0  0  0  0  0  0  0  0  0  0  0  0
   55.5700   36.9810   26.1080 C   0  0  0  0  0  2  0  0  0  0  0  0
   56.8740   37.2730   25.3560 C   0  0  0  0  0  3  0  0  0  0  0  0
   57.3790   38.6730   25.7060 C   0  0  0  0  0  1  0  0  0  0  0  0
   56.6920   37.1470   23.8410 C   0  0  0  0  0  1  0  0  0  0  0  0
  1  9  2  0  0  0  0
  3  9  1  0  0  0  0
  3  7  1  0  0  0  0
  4 11  1  0  0  0  0
  4 10  1  0  0  0  0
  5 13  1  0  0  0  0
  6  7  1  0  0  0  0
  6 12  2  0  0  0  0
  7  8  2  0  0  0  0
  8  5  1  0  0  0  0
  8 10  1  0  0  0  0
  9  4  1  0  0  0  0
 10  2  2  0  0  0  0
 12  5  1  0  0  0  0
 14  3  1  0  0  0  0
 15 16  1  0  0  0  0
 15 14  1  0  0  0  0
 17 15  1  0  0  0  0
M  END
$$$$

REMARK from dok file => REMARK Cluster   2 of Poses:  1 Score: -3.84 kcal/mol
 OpenBabel07182423433D

 17 18  0  0  0  0  0  0  0  0999 V2000
   55.8890   45.9740   27.4140 O   0  0  0  0  0  0  0  0  0  0  0  0
   57.0920   46.1020   31.9510 O   0  0  0  0  0  0  0  0  0  0  0  0
   54.4680   44.9680   28.9580 N   0  0  0  0  0  0  0  0  0  0  0  0
   56.5130   46.0530   29.6700 N   0  0  0  0  0  0  0  0  0  0  0  0
   54.5650   44.5920   32.4390 N   0  0  0  0  0  0  0  0  0  0  0  0
   53.1690   43.9940   30.8070 N   0  0  0  0  0  0  0  0  0  0  0  0
   54.2420   44.6730   30.2950 C   0  0  0  0  0  0  0  0  0  0  0  0
   55.1160   45.0520   31.2770 C   0  0  0  0  0  0  0  0  0  0  0  0
   55.6350   45.6830   28.5880 C   0  0  0  0  0  0  0  0  0  0  0  0
   56.3260   45.7740   31.0500 C   0  0  0  0  0  0  0  0  0  0  0  0
   57.7130   46.7900   29.2880 C   0  0  0  0  0  1  0  0  0  0  0  0
   53.3940   43.9630   32.1040 C   0  0  0  0  0  3  0  0  0  0  0  0
   54.9450   44.6950   33.3710 H   0  0  0  0  0  0  0  0  0  0  0  0
   53.5070   44.5430   27.9470 C   0  0  0  0  0  2  0  0  0  0  0  0
   52.3050   45.4890   27.8520 C   0  0  0  0  0  3  0  0  0  0  0  0
   51.1180   44.9070   28.6210 C   0  0  0  0  0  1  0  0  0  0  0  0
   51.9060   45.7500   26.3970 C   0  0  0  0  0  1  0  0  0  0  0  0
  1  9  2  0  0  0  0
  3  7  1  0  0  0  0
  4 10  1  0  0  0  0
  5 13  1  0  0  0  0
  6 12  2  0  0  0  0
  7  6  1  0  0  0  0
  7  8  2  0  0  0  0
  8  5  1  0  0  0  0
  9  3  1  0  0  0  0
  9  4  1  0  0  0  0
 10  8  1  0  0  0  0
 10  2  2  0  0  0  0
 11  4  1  0  0  0  0
 12  5  1  0  0  0  0
 14  3  1  0  0  0  0
 15 14  1  0  0  0  0
 15 16  1  0  0  0  0
 17 15  1  0  0  0  0
M  END
$$$$

REMARK from dok file => REMARK Cluster   3 of Poses:  3 Score: -3.77 kcal/mol
 OpenBabel07182423433D

 17 18  0  0  0  0  0  0  0  0999 V2000
   55.8740   38.1090   25.7400 O   0  0  0  0  0  0  0  0  0  0  0  0
   55.6230   40.2670   29.9020 O   0  0  0  0  0  0  0  0  0  0  0  0
   56.0400   36.8100   27.6640 N   0  0  0  0  0  0  0  0  0  0  0  0
   55.7460   39.2110   27.8030 N   0  0  0  0  0  0  0  0  0  0  0  0
   55.9610   37.5490   31.0870 N   0  0  0  0  0  0  0  0  0  0  0  0
   56.1830   35.7030   29.8570 N   0  0  0  0  0  0  0  0  0  0  0  0
   56.0460   36.8020   29.0520 C   0  0  0  0  0  0  0  0  0  0  0  0
   55.9080   37.9500   29.7830 C   0  0  0  0  0  0  0  0  0  0  0  0
   55.8870   38.0390   26.9740 C   0  0  0  0  0  0  0  0  0  0  0  0
   55.7460   39.2520   29.2230 C   0  0  0  0  0  0  0  0  0  0  0  0
   55.5870   40.4740   27.0910 C   0  0  0  0  0  1  0  0  0  0  0  0
   56.1270   36.1880   31.0800 C   0  0  0  0  0  3  0  0  0  0  0  0
   55.8910   38.1400   31.9050 H   0  0  0  0  0  0  0  0  0  0  0  0
   56.1900   35.5610   26.9290 C   0  0  0  0  0  2  0  0  0  0  0  0
   57.6600   35.2070   26.6740 C   0  0  0  0  0  3  0  0  0  0  0  0
   57.9840   35.3500   25.1870 C   0  0  0  0  0  1  0  0  0  0  0  0
   57.9900   33.7890   27.1470 C   0  0  0  0  0  1  0  0  0  0  0  0
  1  9  2  0  0  0  0
  3  7  1  0  0  0  0
  4 10  1  0  0  0  0
  5 13  1  0  0  0  0
  6 12  2  0  0  0  0
  7  8  2  0  0  0  0
  7  6  1  0  0  0  0
  8  5  1  0  0  0  0
  9  3  1  0  0  0  0
  9  4  1  0  0  0  0
 10  8  1  0  0  0  0
 10  2  2  0  0  0  0
 11  4  1  0  0  0  0
 12  5  1  0  0  0  0
 14  3  1  0  0  0  0
 15 14  1  0  0  0  0
 15 17  1  0  0  0  0
 16 15  1  0  0  0  0
M  END
$$$$

REMARK from dok file => REMARK Cluster   4 of Poses:  1 Score: -3.72 kcal/mol
 OpenBabel07182423433D

 17 18  0  0  0  0  0  0  0  0999 V2000
   53.7700   47.7510   28.8760 O   0  0  0  0  0  0  0  0  0  0  0  0
   57.2200   49.7740   26.4150 O   0  0  0  0  0  0  0  0  0  0  0  0
   55.7190   46.5340   28.5070 N   0  0  0  0  0  0  0  0  0  0  0  0
   55.4750   48.7840   27.6450 N   0  0  0  0  0  0  0  0  0  0  0  0
   58.7150   47.2250   26.8300 N   0  0  0  0  0  0  0  0  0  0  0  0
   57.8820   45.4940   27.9630 N   0  0  0  0  0  0  0  0  0  0  0  0
   56.9810   46.5250   27.9300 C   0  0  0  0  0  0  0  0  0  0  0  0
   57.4690   47.6010   27.2400 C   0  0  0  0  0  0  0  0  0  0  0  0
   54.9020   47.6860   28.3830 C   0  0  0  0  0  0  0  0  0  0  0  0
   56.7590   48.8220   27.0380 C   0  0  0  0  0  0  0  0  0  0  0  0
   54.6340   49.9690   27.5210 C   0  0  0  0  0  1  0  0  0  0  0  0
   58.9190   45.9490   27.2900 C   0  0  0  0  0  3  0  0  0  0  0  0
   59.3680   47.7790   26.2910 H   0  0  0  0  0  0  0  0  0  0  0  0
   55.2440   45.3620   29.2330 C   0  0  0  0  0  2  0  0  0  0  0  0
   55.3120   45.5510   30.7530 C   0  0  0  0  0  3  0  0  0  0  0  0
   56.7540   45.3970   31.2360 C   0  0  0  0  0  1  0  0  0  0  0  0
   54.4070   44.5570   31.4860 C   0  0  0  0  0  1  0  0  0  0  0  0
  2 10  2  0  0  0  0
  3 14  1  0  0  0  0
  4  9  1  0  0  0  0
  5  8  1  0  0  0  0
  5 12  1  0  0  0  0
  7  6  1  0  0  0  0
  7  3  1  0  0  0  0
  8  7  2  0  0  0  0
  9  3  1  0  0  0  0
  9  1  2  0  0  0  0
 10  8  1  0  0  0  0
 10  4  1  0  0  0  0
 11  4  1  0  0  0  0
 12  6  2  0  0  0  0
 13  5  1  0  0  0  0
 14 15  1  0  0  0  0
 15 16  1  0  0  0  0
 15 17  1  0  0  0  0
M  END
$$$$

REMARK from dok file => REMARK Cluster   5 of Poses:  1 Score: -3.70 kcal/mol
 OpenBabel07182423433D

 17 18  0  0  0  0  0  0  0  0999 V2000
   48.2390   44.5030   26.6920 O   0  0  0  0  0  0  0  0  0  0  0  0
   51.7220   41.8050   25.0690 O   0  0  0  0  0  0  0  0  0  0  0  0
   48.2320   42.2440   27.2500 N   0  0  0  0  0  0  0  0  0  0  0  0
   49.9880   43.1800   25.8690 N   0  0  0  0  0  0  0  0  0  0  0  0
   50.3660   39.5680   26.5050 N   0  0  0  0  0  0  0  0  0  0  0  0
   48.4860   39.8330   27.6740 N   0  0  0  0  0  0  0  0  0  0  0  0
   48.8800   41.0230   27.1230 C   0  0  0  0  0  0  0  0  0  0  0  0
   50.0340   40.8880   26.4000 C   0  0  0  0  0  0  0  0  0  0  0  0
   48.7720   43.3900   26.6150 C   0  0  0  0  0  0  0  0  0  0  0  0
   50.6870   41.9540   25.7110 C   0  0  0  0  0  0  0  0  0  0  0  0
   50.5430   44.3620   25.2180 C   0  0  0  0  0  1  0  0  0  0  0  0
   49.4050   38.9750   27.2820 C   0  0  0  0  0  3  0  0  0  0  0  0
   51.1690   39.1120   26.0910 H   0  0  0  0  0  0  0  0  0  0  0  0
   47.0050   42.3380   28.0320 C   0  0  0  0  0  2  0  0  0  0  0  0
   45.7500   42.3120   27.1530 C   0  0  0  0  0  3  0  0  0  0  0  0
   44.5020   42.4970   28.0160 C   0  0  0  0  0  1  0  0  0  0  0  0
   45.6460   41.0090   26.3560 C   0  0  0  0  0  1  0  0  0  0  0  0
  2 10  2  0  0  0  0
  3 14  1  0  0  0  0
  4  9  1  0  0  0  0
  5 12  1  0  0  0  0
  7  3  1  0  0  0  0
  7  6  1  0  0  0  0
  8  5  1  0  0  0  0
  8  7  2  0  0  0  0
  9  1  2  0  0  0  0
  9  3  1  0  0  0  0
 10  4  1  0  0  0  0
 10  8  1  0  0  0  0
 11  4  1  0  0  0  0
 12  6  2  0  0  0  0
 13  5  1  0  0  0  0
 15 16  1  0  0  0  0
 15 14  1  0  0  0  0
 17 15  1  0  0  0  0
M  END
$$$$

REMARK from dok file => REMARK Cluster   6 of Poses:  1 Score: -3.67 kcal/mol
 OpenBabel07182423433D

 17 18  0  0  0  0  0  0  0  0999 V2000
   57.9920   44.3140   27.6250 O   0  0  0  0  0  0  0  0  0  0  0  0
   55.7400   47.4300   30.3200 O   0  0  0  0  0  0  0  0  0  0  0  0
   56.3410   43.5320   29.0660 N   0  0  0  0  0  0  0  0  0  0  0  0
   56.8850   45.8900   28.9580 N   0  0  0  0  0  0  0  0  0  0  0  0
   54.2130   45.0910   31.3710 N   0  0  0  0  0  0  0  0  0  0  0  0
   54.5570   43.0010   30.6770 N   0  0  0  0  0  0  0  0  0  0  0  0
   55.3960   43.8660   30.0270 C   0  0  0  0  0  0  0  0  0  0  0  0
   55.2050   45.1580   30.4350 C   0  0  0  0  0  0  0  0  0  0  0  0
   57.1360   44.5510   28.4850 C   0  0  0  0  0  0  0  0  0  0  0  0
   55.9320   46.2800   29.9370 C   0  0  0  0  0  0  0  0  0  0  0  0
   57.7030   46.9370   28.3570 C   0  0  0  0  0  1  0  0  0  0  0  0
   53.8550   43.7720   31.4810 C   0  0  0  0  0  3  0  0  0  0  0  0
   53.8150   45.8650   31.8850 H   0  0  0  0  0  0  0  0  0  0  0  0
   56.5070   42.1410   28.6640 C   0  0  0  0  0  2  0  0  0  0  0  0
   55.2060   41.5260   28.1360 C   0  0  0  0  0  3  0  0  0  0  0  0
   54.9870   40.1470   28.7590 C   0  0  0  0  0  1  0  0  0  0  0  0
   55.2120   41.4150   26.6100 C   0  0  0  0  0  1  0  0  0  0  0  0
  1  9  2  0  0  0  0
  3  7  1  0  0  0  0
  4 10  1  0  0  0  0
  5 12  1  0  0  0  0
  5 13  1  0  0  0  0
  6 12  2  0  0  0  0
  7  8  2  0  0  0  0
  7  6  1  0  0  0  0
  8  5  1  0  0  0  0
  9  4  1  0  0  0  0
  9  3  1  0  0  0  0
 10  2  2  0  0  0  0
 10  8  1  0  0  0  0
 11  4  1  0  0  0  0
 14  3  1  0  0  0  0
 15 14  1  0  0  0  0
 15 16  1  0  0  0  0
 17 15  1  0  0  0  0
M  END
$$$$

REMARK from dok file => REMARK Cluster   7 of Poses:  4 Score: -3.67 kcal/mol
 OpenBabel07182423433D

 17 18  0  0  0  0  0  0  0  0999 V2000
   48.0480   44.6480   26.7960 O   0  0  0  0  0  0  0  0  0  0  0  0
   52.0280   42.1590   26.7050 O   0  0  0  0  0  0  0  0  0  0  0  0
   47.8940   42.3320   26.6270 N   0  0  0  0  0  0  0  0  0  0  0  0
   50.0480   43.4310   26.7530 N   0  0  0  0  0  0  0  0  0  0  0  0
   50.2670   39.7600   26.4940 N   0  0  0  0  0  0  0  0  0  0  0  0
   48.0410   39.8820   26.4550 N   0  0  0  0  0  0  0  0  0  0  0  0
   48.5880   41.1330   26.5560 C   0  0  0  0  0  0  0  0  0  0  0  0
   49.9550   41.0860   26.5820 C   0  0  0  0  0  0  0  0  0  0  0  0
   48.6120   43.5500   26.7290 C   0  0  0  0  0  0  0  0  0  0  0  0
   50.8030   42.2300   26.6830 C   0  0  0  0  0  0  0  0  0  0  0  0
   50.7860   44.6860   26.8600 C   0  0  0  0  0  1  0  0  0  0  0  0
   49.0810   39.0750   26.4200 C   0  0  0  0  0  3  0  0  0  0  0  0
   51.1940   39.3550   26.4860 H   0  0  0  0  0  0  0  0  0  0  0  0
   46.4360   42.3310   26.5960 C   0  0  0  0  0  2  0  0  0  0  0  0
   45.8260   41.7680   27.8840 C   0  0  0  0  0  3  0  0  0  0  0  0
   44.5400   42.5200   28.2270 C   0  0  0  0  0  1  0  0  0  0  0  0
   46.8070   41.8480   29.0560 C   0  0  0  0  0  1  0  0  0  0  0  0
  3  9  1  0  0  0  0
  4 11  1  0  0  0  0
  5  8  1  0  0  0  0
  6  7  1  0  0  0  0
  7  8  2  0  0  0  0
  7  3  1  0  0  0  0
  8 10  1  0  0  0  0
  9  4  1  0  0  0  0
  9  1  2  0  0  0  0
 10  2  2  0  0  0  0
 10  4  1  0  0  0  0
 12  6  2  0  0  0  0
 12  5  1  0  0  0  0
 13  5  1  0  0  0  0
 14  3  1  0  0  0  0
 14 15  1  0  0  0  0
 15 16  1  0  0  0  0
 15 17  1  0  0  0  0
M  END
$$$$

REMARK from dok file => REMARK Cluster   8 of Poses:  1 Score: -3.67 kcal/mol
 OpenBabel07182423433D

 17 18  0  0  0  0  0  0  0  0999 V2000
   54.1950   39.0650   27.1850 O   0  0  0  0  0  0  0  0  0  0  0  0
   56.5070   37.5320   30.9740 O   0  0  0  0  0  0  0  0  0  0  0  0
   55.6750   37.2870   26.9270 N   0  0  0  0  0  0  0  0  0  0  0  0
   55.3350   38.3210   29.0910 N   0  0  0  0  0  0  0  0  0  0  0  0
   57.7610   35.5440   29.1350 N   0  0  0  0  0  0  0  0  0  0  0  0
   57.2940   35.4340   26.9580 N   0  0  0  0  0  0  0  0  0  0  0  0
   56.5760   36.4370   27.5530 C   0  0  0  0  0  0  0  0  0  0  0  0
   56.8450   36.5270   28.8910 C   0  0  0  0  0  0  0  0  0  0  0  0
   55.0080   38.2800   27.6870 C   0  0  0  0  0  0  0  0  0  0  0  0
   56.2480   37.4750   29.7750 C   0  0  0  0  0  0  0  0  0  0  0  0
   54.6470   39.3420   29.8720 C   0  0  0  0  0  1  0  0  0  0  0  0
   58.0000   34.9150   27.9410 C   0  0  0  0  0  3  0  0  0  0  0  0
   58.1850   35.3210   30.0260 H   0  0  0  0  0  0  0  0  0  0  0  0
   55.4210   37.1530   25.4980 C   0  0  0  0  0  2  0  0  0  0  0  0
   56.6880   37.3590   24.6590 C   0  0  0  0  0  3  0  0  0  0  0  0
   57.1850   38.7970   24.8060 C   0  0  0  0  0  1  0  0  0  0  0  0
   56.4450   37.0390   23.1820 C   0  0  0  0  0  1  0  0  0  0  0  0
  1  9  2  0  0  0  0
  3  7  1  0  0  0  0
  3  9  1  0  0  0  0
  4 10  1  0  0  0  0
  4 11  1  0  0  0  0
  5 13  1  0  0  0  0
  6  7  1  0  0  0  0
  6 12  2  0  0  0  0
  7  8  2  0  0  0  0
  8  5  1  0  0  0  0
  8 10  1  0  0  0  0
  9  4  1  0  0  0  0
 10  2  2  0  0  0  0
 12  5  1  0  0  0  0
 14  3  1  0  0  0  0
 15 16  1  0  0  0  0
 15 14  1  0  0  0  0
 17 15  1  0  0  0  0
M  END
$$$$

REMARK from dok file => REMARK Cluster   9 of Poses:  1 Score: -3.63 kcal/mol
 OpenBabel07182423433D

 17 18  0  0  0  0  0  0  0  0999 V2000
   55.0830   39.0050   30.2540 O   0  0  0  0  0  0  0  0  0  0  0  0
   57.9940   35.9280   28.2280 O   0  0  0  0  0  0  0  0  0  0  0  0
   55.8310   39.4540   28.0960 N   0  0  0  0  0  0  0  0  0  0  0  0
   56.5340   37.4540   29.2670 N   0  0  0  0  0  0  0  0  0  0  0  0
   57.9540   37.7680   25.8790 N   0  0  0  0  0  0  0  0  0  0  0  0
   56.7790   39.6620   25.8350 N   0  0  0  0  0  0  0  0  0  0  0  0
   56.6120   39.0220   27.0330 C   0  0  0  0  0  0  0  0  0  0  0  0
   57.3240   37.8550   27.0870 C   0  0  0  0  0  0  0  0  0  0  0  0
   55.7620   38.6710   29.2760 C   0  0  0  0  0  0  0  0  0  0  0  0
   57.3470   36.9710   28.2070 C   0  0  0  0  0  0  0  0  0  0  0  0
   56.4610   36.6490   30.4820 C   0  0  0  0  0  1  0  0  0  0  0  0
   57.5950   38.8790   25.1600 C   0  0  0  0  0  3  0  0  0  0  0  0
   58.5700   37.0270   25.5690 H   0  0  0  0  0  0  0  0  0  0  0  0
   55.0900   40.7050   27.9920 C   0  0  0  0  0  2  0  0  0  0  0  0
   55.6340   41.7850   28.9330 C   0  0  0  0  0  3  0  0  0  0  0  0
   54.6740   42.9740   28.9780 C   0  0  0  0  0  1  0  0  0  0  0  0
   57.0270   42.2560   28.5070 C   0  0  0  0  0  1  0  0  0  0  0  0
  3  9  1  0  0  0  0
  4  9  1  0  0  0  0
  4 11  1  0  0  0  0
  5  8  1  0  0  0  0
  6  7  1  0  0  0  0
  7  8  2  0  0  0  0
  7  3  1  0  0  0  0
  8 10  1  0  0  0  0
  9  1  2  0  0  0  0
 10  2  2  0  0  0  0
 10  4  1  0  0  0  0
 12  6  2  0  0  0  0
 12  5  1  0  0  0  0
 13  5  1  0  0  0  0
 14  3  1  0  0  0  0
 14 15  1  0  0  0  0
 15 16  1  0  0  0  0
 17 15  1  0  0  0  0
M  END
$$$$

REMARK from dok file => REMARK Cluster  10 of Poses:  1 Score: -3.61 kcal/mol
 OpenBabel07182423433D

 17 18  0  0  0  0  0  0  0  0999 V2000
   57.5420   39.1840   26.1250 O   0  0  0  0  0  0  0  0  0  0  0  0
   55.1850   40.5030   29.9650 O   0  0  0  0  0  0  0  0  0  0  0  0
   56.9730   37.5500   27.6810 N   0  0  0  0  0  0  0  0  0  0  0  0
   56.3660   39.8690   28.0310 N   0  0  0  0  0  0  0  0  0  0  0  0
   55.2700   37.6220   30.7410 N   0  0  0  0  0  0  0  0  0  0  0  0
   56.2400   36.0520   29.4910 N   0  0  0  0  0  0  0  0  0  0  0  0
   56.3520   37.2790   28.8930 C   0  0  0  0  0  0  0  0  0  0  0  0
   55.7640   38.2620   29.6410 C   0  0  0  0  0  0  0  0  0  0  0  0
   57.0040   38.8820   27.1960 C   0  0  0  0  0  0  0  0  0  0  0  0
   55.7200   39.6400   29.2750 C   0  0  0  0  0  0  0  0  0  0  0  0
   56.3980   41.2390   27.5290 C   0  0  0  0  0  1  0  0  0  0  0  0
   55.5810   36.2940   30.6050 C   0  0  0  0  0  3  0  0  0  0  0  0
   54.7680   38.0450   31.5120 H   0  0  0  0  0  0  0  0  0  0  0  0
   57.5850   36.4690   26.9200 C   0  0  0  0  0  2  0  0  0  0  0  0
   56.8200   36.1590   25.6280 C   0  0  0  0  0  3  0  0  0  0  0  0
   55.4360   35.6000   25.9600 C   0  0  0  0  0  1  0  0  0  0  0  0
   57.5840   35.1710   24.7430 C   0  0  0  0  0  1  0  0  0  0  0  0
  1  9  2  0  0  0  0
  3  7  1  0  0  0  0
  4 10  1  0  0  0  0
  5 13  1  0  0  0  0
  6 12  2  0  0  0  0
  7  6  1  0  0  0  0
  7  8  2  0  0  0  0
  8  5  1  0  0  0  0
  9  3  1  0  0  0  0
  9  4  1  0  0  0  0
 10  8  1  0  0  0  0
 10  2  2  0  0  0  0
 11  4  1  0  0  0  0
 12  5  1  0  0  0  0
 14  3  1  0  0  0  0
 15 16  1  0  0  0  0
 15 14  1  0  0  0  0
 17 15  1  0  0  0  0
M  END
$$$$

